CM 19 Elementi Tonna per i 70 cm  con dipolo semplice
CM free space
CM 435.0 MHz                             ill file !! or ill antenna ?
CM 19 wires, millimeters                 increasing pulses per element
CM 1 source                              gain gets worst ( at 435 MHz)
CM 5,100,0                               Max gain 15.97 dBi at 410 MHz
CM 0 loads
CMPP  1, 0, 0, 0, 0
CE
GW 1  10       -82,  -175,   0    -82, 175,   0       4
GW 2  11      0,    -160,   0      0, 160,   0       10
GW 3  10       56,   -165,   0     56, 165,   0       4
GW 4  10       171,  -157.5, 0    171, 157.5, 0       4
GW 5  10       342,  -152.5, 0    342, 152.5, 0       4
GW 6  10       514,  -150,   0    514, 150,   0       4
GW 7  10       686,  -148.5, 0    686, 148.5, 0       4
GW 8  10       838,  -147.5, 0    838, 147.5, 0       4
GW 9  10       1029, -147.5, 0   1029, 147.5, 0       4
GW 10 10       1201, -145,   0   1201, 145,   0       4
GW 11 10       1374, -142.5, 0   1374, 142.5, 0       4
GW 12 10       1547, -142.5, 0   1547, 142.5, 0       4
GW 13 10       1718, -140,   0   1718, 140,   0       4
GW 14 10       1890, -140,   0   1890, 140,   0       4
GW 15 10       2062, -137.5, 0   2062, 137.5, 0       4
GW 16 10       2234, -137.5, 0   2234, 137.5, 0       4
GW 17 10       2404, -135,   0   2404, 135,   0       4
GW 18 10       2578, -135,   0   2578, 135,   0       4
GW 19 10       2775, -132.5, 0   2775, 132.5, 0       4
GW 20 170       -82, 0, 0,        2775, 0, 0,          15
GS 0  0  .001
GE  0,
EK  0    0    0   0  .0000E+00     .0000     .0000     .0000     .0000    .0000
LD  5    1    0   0  .2701E+08     .0000     .0000     .0000     .0000    .0000
LD  5    2    0   0  .2701E+08     .0000     .0000     .0000     .0000    .0000
LD  5    3    0   0  .2701E+08     .0000     .0000     .0000     .0000    .0000
LD  5    4    0   0  .2701E+08     .0000     .0000     .0000     .0000    .0000
LD  5    5    0   0  .2701E+08     .0000     .0000     .0000     .0000    .0000
LD  5    6    0   0  .2701E+08     .0000     .0000     .0000     .0000    .0000
LD  5    7    0   0  .2701E+08     .0000     .0000     .0000     .0000    .0000
LD  5    8    0   0  .2701E+08     .0000     .0000     .0000     .0000    .0000
LD  5    9    0   0  .2701E+08     .0000     .0000     .0000     .0000    .0000
LD  5   10    0   0  .2701E+08     .0000     .0000     .0000     .0000    .0000
LD  5   11    0   0  .2701E+08     .0000     .0000     .0000     .0000    .0000
LD  5   12    0   0  .2701E+08     .0000     .0000     .0000     .0000    .0000
LD  5   13    0   0  .2701E+08     .0000     .0000     .0000     .0000    .0000
LD  5   14    0   0  .2701E+08     .0000     .0000     .0000     .0000    .0000
LD  5   15    0   0  .2701E+08     .0000     .0000     .0000     .0000    .0000
LD  5   16    0   0  .2701E+08     .0000     .0000     .0000     .0000    .0000
LD  5   17    0   0  .2701E+08     .0000     .0000     .0000     .0000    .0000
LD  5   18    0   0  .2701E+08     .0000     .0000     .0000     .0000    .0000
LD  5   19    0   0  .2701E+08     .0000     .0000     .0000     .0000    .0000
FR  0, 0, 0, 0, 405.0,
EX  0, 2, 5, 0, 1., 0.,
PT -1
RP  0, 1, 1,  1001, 90, 0, 0, 0
RP  0, 1, 1,  1001, 90,180, 0, 0
RP  0, 1, 361, 1001, 90, 0, 1, 1
RP  0, 361, 1, 1001, 0, 0, 1, 1
EN
