CM *** 3 Element Auerbach Seite 236 ***
CM *** Elemente 10 mm auf 20 mm Traeger ***
CM *** Traegerkorrektur = Berechnete Laenge + 66% ***
CE
GW 01, 6, 0.509, 0.000, 0.010, -0.509,  0.000, 0.010,  0.005
GW 02, 7, 0.484, 0.000, 0.440, -0.484,  0.000, 0.440,  0.005
GW 03, 6, 0.459, 0.000, 0.820, -0.459,  0.000, 0.820,  0.005
GE
FR 0,1,0,0,145.
EX 0,2,4,00,1.,0
LD 5,0,0,0,3.72E+07
PT -2
PL 3,1,0,3
RP 0,361,2,1000,0.,0.,1.,90.
EN
