CM 9 elementi Tonna per i 144 MHz
CM free space
CM 145.0 MHz
CM 9 wires, millimeters
CM
CM Con perdite dovute all'alluminio
CM
CMPP  1, 0, 0, 0, 0
CE
GW 1 17   0,-490,0      0,490,0       10
GW 2 17   -180,-515,0   -180,515,0    4
GW 3 17   176,-465,0    176,465,0     4
GW 4 17   552,-472.5,0  552,472.5,0   4
GW 5 17   1035,-460,0   1035,460,0    4
GW 6 17   1548,-460,0   1548,460,0    4
GW 7 17   2066,-450,0   2066,450,0    4
GW 8 17   2584,-450,0   2584,450,0    4
GW 9 17   2978,-440,0   2978,440,0    4
GS 0  0  .001
GE  0,
EK  0    0    0   0  .0000E+00     .0000     .0000     .0000     .0000    .0000
LD  5    1    0   0  .2701E+08     .0000     .0000     .0000     .0000    .0000
LD  5    2    0   0  .2701E+08     .0000     .0000     .0000     .0000    .0000
LD  5    3    0   0  .2701E+08     .0000     .0000     .0000     .0000    .0000
LD  5    4    0   0  .2701E+08     .0000     .0000     .0000     .0000    .0000
LD  5    5    0   0  .2701E+08     .0000     .0000     .0000     .0000    .0000
LD  5    6    0   0  .2701E+08     .0000     .0000     .0000     .0000    .0000
LD  5    7    0   0  .2701E+08     .0000     .0000     .0000     .0000    .0000
LD  5    8    0   0  .2701E+08     .0000     .0000     .0000     .0000    .0000
LD  5    9    0   0  .2701E+08     .0000     .0000     .0000     .0000    .0000
FR  0,0,0,0, 145,
EX  0, 1, 9,0,1., 0.,
PT -1
RP  0, 1, 1,  1001, 90, 0, 0, 0
RP  0, 1, 1,  1001, 90,180, 0, 0
RP  0, 1, 361, 1001, 90, 0, 1, 1
RP  0, 361, 1, 1001, 0, 0, 1, 1
EN
