CM 9 elementi Tonna per i 144 MHz            orizzontale
CM      su terra
CM 145.0 MHz
CM 9 wires, millimeters
CM 1 source
CM 5,100,0
CM 0 loads
CM PP  2, 2, 0, 0, 0
CE
GW 1 17   0,-490,0      0,490,0       10
GW 2 17   -180,-515,0   -180,515,0    4
GW 3 17   176,-465,0    176,465,0     4
GW 4 17   552,-472.5,0  552,472.5,0   4
GW 5 17   1035,-460,0   1035,460,0    4
GW 6 17   1548,-460,0   1548,460,0    4
GW 7 17   2066,-450,0   2066,450,0    4
GW 8 17   2584,-450,0   2584,450,0    4
GW 9 17   2978,-440,0   2978,440,0    4
GM  0    0  .0  .0 .0 0.000   0.0    3000.0     .000
GS 0  0  .001
GE  0,
GN 1
FR  0,0,0,0, 145,
EX  0, 1, 9,0,1., 0.,
PT -1
RP  0  181   1 1001  -90.00E+00  0.00E+00  1.00E+00  0.00E+00 1.00E+04  0.00E+00
EN
