CM 9  elementi Tonna  verticale per i 144 MHz
CM free space
CM 145.0 MHz
CMPP  1, 0, 0, 0, 0
CE
GW 1 17   0,    0, -490,       0,   0, 490,     10
GW 2 17  -180,  0, -515,    -180,   0, 515,     4
GW 3 17   176,  0, -465,     176,   0, 465,     4
GW 4 17   552,  0, -472.5,   552,   0, 472.5,   4
GW 5 17   1035, 0,  -460,   1035,   0, 460,     4
GW 6 17   1548, 0,  -460,   1548,   0, 460,     4
GW 7 17   2066, 0,  -450,   2066,   0, 450,     4
GW 8 17   2584, 0,  -450,   2584,   0, 450,     4
GW 9 17   2978, 0,  -440,   2978,   0, 440,     4
GS 0  0  .001
GE  0,
FR  0,0,0,0, 145,
EX  0, 1,  9,0,1., 0.,
PT -1
RP  0, 1, 1,  1001, 90, 0, 0, 0
RP  0, 1, 1,  1001, 90,180, 0, 0
RP  0, 1, 361, 1001, 90, 0, 1, 1
RP  0, 361, 1, 1001, 0, 0, 1, 1
EN
