CM 2 x (9 X 9) elementi Tonna per i 144 MHz (offset vero su antenna verticale)
CM e                            spaziate 2.66 m sul piano orizzontale
CM 145.0 MHz                    con mast
CMPP  2, 0, 0, 0, 0
CE
GW 1 25   0,    -1820,   0      0,  -840,   0    10
GW 2 25   -180, -1845,   0   -180,  -815,   0    4
GW 3 25   176,  -1795,   0    176,  -865,   0    4
GW 4 25   552,  -1802.5, 0  552,    -857.5, 0    4
GW 5 25   1035, -1790,   0   1035,  -870,   0    4
GW 6 25   1548, -1790,   0   1548,  -870,   0    4
GW 7 25   2066, -1780,   0   2066,  -880,   0    4
GW 8 25   2584, -1780,   0   2584,  -880,   0    4
GW 9 25   2978, -1770,   0   2978,  -890,   0    4
GW 10 25   100, -1330, -490,     100,   -1330, 490,     10
GW 11 25  -80,  -1330, -515,     -80,   -1330, 515,     4
GW 12 25   276, -1330, -465,     276,   -1330, 465,     4
GW 13 25   652, -1330, -472.5,   652,   -1330, 472.5,   4
GW 14 25   1135,-1330,  -460,   1135,   -1330, 460,     4
GW 15 25   1648,-1330,  -460,   1648,   -1330, 460,     4
GW 16 25   2166,-1330,  -450,   2166,   -1330, 450,     4
GW 17 25   2684,-1330,  -450,   2684,   -1330, 450,     4
GW 18 25   3078,-1330,  -440,   3078,   -1330, 440,     4
GW 19 25   0,    840,   0      0,  1820,   0    10
GW 20 25   -180, 815,   0   -180,  1845,   0    4
GW 21 25   176,  865,   0    176,  1795,   0    4
GW 22 25   552,  857.5, 0  552,    1802.5, 0    4
GW 23 25   1035, 870,   0   1035,  1790,   0    4
GW 24 25   1548, 870,   0   1548,  1790,   0    4
GW 25 25   2066, 880,   0   2066,  1780,   0    4
GW 26 25   2584, 880,   0   2584,  1780,   0    4
GW 27 25   2978, 890,   0   2978,  1770,   0    4
GW 28 25   100,    1330, -490,    100,    1330, 490,     10
GW 29 25  -80,     1330, -515,    -80,    1330, 515,     4
GW 30 25   276,    1330, -465,     276,   1330, 465,     4
GW 31 25   652,    1330, -472.5,   652,   1330, 472.5,   4
GW 32 25   1135,   1330,  -460,   1135,   1330, 460,     4
GW 33 25   1648,   1330,  -460,   1648,   1330, 460,     4
GW 34 25   2166,   1330,  -450,   2166,   1330, 450,     4
GW 35 25   2684,   1330,  -450,   2684,   1330, 450,     4
GW 36 25   3078,   1330,  -440,   3078,   1330, 440,     4
GW 37 50   1370,   -1150,   0,    1370,   1150,  0,      40
GM  0    0  .0  .0 .0 0.000   0.0    3000.0     .000
GS 0  0  .001
GE  0,
GN 1
FR  0,0,0,0, 145,
EX  0, 1,  7,0,1., 0.,
EX  0, 10, 7,0,0.299, 0.954,
EX  0, 19, 7,0,1., 0.,
EX  0, 28, 7,0,0.299, 0.954,
PT -1
RP  0  181   1 1001  -90.00E+00  0.00E+00  1.00E+00  0.00E+00 1.00E+04  0.00E+00
EN
