CM 9 X 9 elementi Tonna per i 144 MHz (offset vero su antenna verticale)
CM free space
CM 145.0 MHz
CMPP  1, 0, 0, 0, 0
CE
GW 1 17   0,    -490,   0      0,  490,   0    10
GW 2 17   -180, -515,   0   -180,  515,   0    4
GW 3 17   176,  -465,   0    176,  465,   0    4
GW 4 17   552,  -472.5, 0  552,    472.5, 0    4
GW 5 17   1035, -460,   0   1035,  460,   0    4
GW 6 17   1548, -460,   0   1548,  460,   0    4
GW 7 17   2066, -450,   0   2066,  450,   0    4
GW 8 17   2584, -450,   0   2584,  450,   0    4
GW 9 17   2978, -440,   0   2978,  440,   0    4
GW 10 17   100,    0, -490,       100,   0, 490,     10
GW 12 17  -80,  0, -515,    -80,   0, 515,     4
GW 13 17   276,  0, -465,     276,   0, 465,     4
GW 14 17   652,  0, -472.5,   652,   0, 472.5,   4
GW 15 17   1135, 0,  -460,   1135,   0, 460,     4
GW 16 17   1648, 0,  -460,   1648,   0, 460,     4
GW 17 17   2166, 0,  -450,   2166,   0, 450,     4
GW 18 17   2684, 0,  -450,   2684,   0, 450,     4
GW 19 17   3078, 0,  -440,   3078,   0, 440,     4
GS 0  0  .001
GE  0,
FR  0,0,0,0, 145,
EX  0, 1,  9,0,1., 0.,
EX  0, 10, 9,0,0.299, 0.954,
PT -1
RP  0, 1, 1,  1001, 90, 0, 0, 0
RP  0, 1, 1,  1001, 90,180, 0, 0
RP  0, 1, 361, 1001, 90, 0, 1, 1
RP  0, 361, 1, 1001, 0, 0, 1, 1
EN
