CM 9 X 9 elementi Tonna per i 144 MHz
CM  su terra
CM 145.0 MHz
CMPP  2, 0, 0, 0, 0
CE
GW 1 17   0,    -490,   0      0,  490,   0    10
GW 2 17   -180, -515,   0   -180,  515,   0    4
GW 3 17   176,  -465,   0    176,  465,   0    4
GW 4 17   552,  -472.5, 0  552,    472.5, 0    4
GW 5 17   1035, -460,   0   1035,  460,   0    4
GW 6 17   1548, -460,   0   1548,  460,   0    4
GW 7 17   2066, -450,   0   2066,  450,   0    4
GW 8 17   2584, -450,   0   2584,  450,   0    4
GW 9 17   2978, -440,   0   2978,  440,   0    4
GW 10 17   0,    0, -490,       0,   0, 490,     10
GW 12 17  -180,  0, -515,    -180,   0, 515,     4
GW 13 17   176,  0, -465,     176,   0, 465,     4
GW 14 17   552,  0, -472.5,   552,   0, 472.5,   4
GW 15 17   1035, 0,  -460,   1035,   0, 460,     4
GW 16 17   1548, 0,  -460,   1548,   0, 460,     4
GW 17 17   2066, 0,  -450,   2066,   0, 450,     4
GW 18 17   2584, 0,  -450,   2584,   0, 450,     4
GW 19 17   2978, 0,  -440,   2978,   0, 440,     4
GM  0    0  .0  .0 .0 0.000   0.0    3000.0     .000
GS 0  0  .001
GE 1
GN 1
FR  0,0,0,0, 145,
EX  0, 1,  9,0,1., 0.,
EX  0, 10, 9,0,0., 1.,
PT -1
RP  0  181   1 1001  -90.00E+00  0.00E+00  1.00E+00  0.00E+00 1.00E+04  0.00E+00
EN
