CM 2 x (9 X 9) elementi Tonna per i 144 MHz (offset vero su antenna verticale)
CM free space                            spaziate 2.66 m sul piano orizzontale
CM 145.0 MHz                             Con Mast orizontale
CMPP  1, 0, 0, 0, 0
CE
GW 1 15   0,    -1820,   0      0,  -840,   0    10
GW 2 15   -180, -1845,   0   -180,  -815,   0    4
GW 3 15   176,  -1795,   0    176,  -865,   0    4
GW 4 15   552,  -1802.5, 0  552,    -857.5, 0    4
GW 5 15   1035, -1790,   0   1035,  -870,   0    4
GW 6 15   1548, -1790,   0   1548,  -870,   0    4
GW 7 15   2066, -1780,   0   2066,  -880,   0    4
GW 8 15   2584, -1780,   0   2584,  -880,   0    4
GW 9 15   2978, -1770,   0   2978,  -890,   0    4
GW 10 15   100, -1330, -490,     100,   -1330, 490,     10
GW 11 15  -80,  -1330, -515,     -80,   -1330, 515,     4
GW 12 15   276, -1330, -465,     276,   -1330, 465,     4
GW 13 15   652, -1330, -472.5,   652,   -1330, 472.5,   4
GW 14 15   1135,-1330,  -460,   1135,   -1330, 460,     4
GW 15 15   1648,-1330,  -460,   1648,   -1330, 460,     4
GW 16 15   2166,-1330,  -450,   2166,   -1330, 450,     4
GW 17 15   2684,-1330,  -450,   2684,   -1330, 450,     4
GW 18 15   3078,-1330,  -440,   3078,   -1330, 440,     4
GW 19 15   0,    840,   0      0,  1820,   0    10
GW 20 15   -180, 815,   0   -180,  1845,   0    4
GW 21 15   176,  865,   0    176,  1795,   0    4
GW 22 15   552,  857.5, 0  552,    1802.5, 0    4
GW 23 15   1035, 870,   0   1035,  1790,   0    4
GW 24 15   1548, 870,   0   1548,  1790,   0    4
GW 25 15   2066, 880,   0   2066,  1780,   0    4
GW 26 15   2584, 880,   0   2584,  1780,   0    4
GW 27 15   2978, 890,   0   2978,  1770,   0    4
GW 28 15   100,    1330, -490,    100,    1330, 490,     10
GW 29 15  -80,     1330, -515,    -80,    1330, 515,     4
GW 30 15   276,    1330, -465,     276,   1330, 465,     4
GW 31 15   652,    1330, -472.5,   652,   1330, 472.5,   4
GW 32 15   1135,   1330,  -460,   1135,   1330, 460,     4
GW 33 15   1648,   1330,  -460,   1648,   1330, 460,     4
GW 34 15   2166,   1330,  -450,   2166,   1330, 450,     4
GW 35 15   2684,   1330,  -450,   2684,   1330, 450,     4
GW 36 15   3078,   1330,  -440,   3078,   1330, 440,     4
GW 37 25   1370,   -1150,   0,    1370,   1150,  0,      40
GS 0  0  .001
GE  0,
FR  0,0,0,0, 145,
EX  0, 1,  7,0,1., 0.,
EX  0, 10, 7,0,0.299, 0.954,
EX  0, 19, 7,0,1., 0.,
EX  0, 28, 7,0,0.299, 0.954,
PT -1
RP  0, 1, 1,  1001, 90, 0, 0, 0
RP  0, 1, 1,  1001, 90,180, 0, 0
RP  0, 1, 361, 1001, 90, 0, 1, 1
RP  0, 361, 1, 1001, 0, 0, 1, 1
EN
