CM   Test structure for checking NEC
CE   9 elements yagi on wooden boom. Gain 15.12dB
GW  1   15      0.0    -501.75      0.0       0.0     501.75      0.0       4.5
GW  2   15      0.0    -464.85    393.3       0.0     464.85    393.3       4.5
GW  3   15      0.0    -467.30    572.8       0.0     467.30    572.8       4.5
GW  4   15      0.0    -459.50   1083.9       0.0     459.50   1083.9       4.5
GW  5   15      0.0    -449.10   1841.0       0.0     449.10   1841.0       4.5
GW  6   15      0.0    -443.95   2685.8       0.0     443.95   2685.8       4.5
GW  7   15      0.0    -430.00   3596.8       0.0     430.00   3596.8       4.5
GW  8   15      0.0    -426.80   4578.0       0.0     426.80   4578.0       4.5
GW  9   15      0.0    -445.00   5302.7       0.0     445.00   5302.7       4.5
GS  0    0     0.001
GE  0
FR  0    1    0    0     144.1      0.5
EK
LD  5    1    1    0  2.7008E7
LD  5    2    1    0  2.7008E7
LD  5    3    1    0  2.7008E7
LD  5    4    1    0  2.7008E7
LD  5    5    1    0  2.7008E7
LD  5    6    1    0  2.7008E7
LD  5    7    1    0  2.7008E7
LD  5    8    1    0  2.7008E7
LD  5    9    1    0  2.7008E7
KH  0    0    0    0  1.0
EX  0    2    8   00         1         0
RP  0   10   60 1501         0         0        10        45     10000
EN
