CM   Test structure for checking NEC
CE  10 elements yagi on wooden boom. Gain=15.76dBd
GW  1   15      0.0    -504.56      0.0       0.0     504.56      0.0       2.5
GW  2   15      0.0    -486.34    367.75      0.0     486.34    367.75      2.5
GW  3   15      0.0    -478.30    650.27      0.0     478.30    650.27      2.5
GW  4   15      0.0    -465.83   1231.87      0.0     465.83   1231.87      2.5
GW  5   15      0.0    -457.13   1929.15      0.0     457.13   1929.15      2.5
GW  6   15      0.0    -449.03   2826.75      0.0     449.03   2826.75      2.5
GW  7   15      0.0    -442.42   3782.33      0.0     442.42   3782.33      2.5
GW  8   15      0.0    -441.36   4659.28      0.0     441.36   4659.28      2.5
GW  9   15      0.0    -446.72   5522.93      0.0     446.72   5522.93      2.5
GW 10   15      0.0    -451.37   6368.34      0.0     451.37   6368.34      2.5
GS  0    0     0.001
GE  0
FR  0    1    0    0     144.1      0.5
EK
LD  5    1    1    0  2.7008E7
LD  5    2    1    0  2.7008E7
LD  5    3    1    0  2.7008E7
LD  5    4    1    0  2.7008E7
LD  5    5    1    0  2.7008E7
LD  5    6    1    0  2.7008E7
LD  5    7    1    0  2.7008E7
LD  5    8    1    0  2.7008E7
LD  5    9    1    0  2.7008E7
LD  5   10    1    0  2.7008E7
KH  0    0    0    0  1.0
EX  0    2    8   00         1         0
RP  0   90  180 1501         0         0        10        45     10000
EN
