CM Dipolo per i 40m  ( i2kfx )
CM
CM
CMPP  2, 0, 0, 0, 0
CE
GW 1 21  0,    -10.64,     30,       0,  +10.64,        30,        0.004
GW 2 21  0,    -10.64,     10,       0,  +10.64,        10,        0.004
GE 0
GN 1
FR 0 0 0 0 7.05
EX 0 1 11 0 1.0 0.0
EX 0 2 11 0 .50 0.0
PT -1
RP  0  181   1 1001  -90.00E+00  0.00E+00  1.00E+00  0.00E+00 1.00E+04  0.00E+00
EN
