CM Dipolo per i 40m  ( i2kfx )
CM
CM
CMPP  1, 0, 0, 0, 0
CE
GW 1 21  0,    -10.64,     0,       0,  +10.64,        0,        0.004
GE 0
FR 0 0 0 0 7.05
EX 0 1 11 0 1.0 0.0
PT -1
RP  0, 1, 1,  1001, 90, 0, 0, 0
RP  0, 1, 1,  1001, 90,180, 0, 0
RP  0, 1, 361, 1001, 90, 0, 1, 1
RP  0, 361, 1, 1001, 0, 0, 1, 1
EN
