CM *** Lambda 0.5 Dipol 20 mm 100 MHz vor Reflektor (KATHREIN) ***
CM *** Aktives Element in y-Achse ***
CM *** ( = vertikal ) ***
CE
GW 1,08,-0.675, 0.000, 0.000,  0.675, 0.000, 0.000,  0.010
GW 2,10,-1.500,-0.450, 0.000,  1.000,-0.450, 0.000,  0.030
GE
FR 0,1,0,0,100.0
EX 0,1,04,00,1.,0
LD 5,0,0,0,3.72E+07
PT -1
PL 3,1,0,3
RP 0,37,37,1000,270.,0.,10.,5.
EN
