CM 2 elementi Delta Loop per i 28 MHz
CM   misure in piedi
CM
CMPP  3, 0, 0, 0, 0
CE
GW  1  30     0  0       0         0   -5.5    10.665     .03125
GW  2  30     0  0       0         0    5.5    10.665     .03125
GW  3  30     0 -5.5    10.665     0    5.5    10.665     .00337
GW  4  30  -6.5  0       0        -6.5 -5.9167 10.44      .03125
GW  5  30  -6.5  0       0        -6.5  5.9167 10.44      .03125
GW  6  30  -6.5 -5.9167 10.44     -6.5  5.9167 10.44      .00337
GS  0 0 0.3048
GE  0
FR  0,21,0,0, 28.0,0.1
EX  0   1    1    0  1.00E+00  0.00E+00  0.00E+00  0.00E+00 0.00E+00  0.00E+00
PT -1
RP  0, 1, 1,  1001, 90, 0, 0, 0
FR  0,21,0,0, 28.0,0.1
RP  0, 1, 1,  1001, 90,180, 0, 0
EN
