CM Delta Loop a 2 elementi per i 18  MHz  ( i2kfx )
CM free space                              A 15 m da terra
CM 18.139 MHz                              Max a 13^ con 13.79 dBi
CM 6 wires, millimeters
CM 1 source
CM 10,100,0
CM 0 loads
CMPP 2, 2, 0, 0, 0
CE
GW 1 10        0,0,15000          0,2815,19876       25
GW 2 10        0,0,15000          0,-2815,19876      25
GW 3 10        0,-2815,19876      0,2815,19876       2
GW 4 10      -3300,0,15000        -3300,2885,19997   25
GW 5 10      -3300,0,15000        -3300,-2885,19997  25
GW 6 10      -3300,-2885,19997    -3300,2885,19997   2
GS 0 0  .001
GE 0
GN 1
FR 0 0 0 0 18.139
EX 0 1 1 0 1.0 0.0
PT -1
RP  0  181   1 1001  -90.00E+00  0.00E+00  1.00E+00  0.00E+00 1.00E+04  0.00E+00
EN
