CM Delta Loop a 2 elementi per i 18  MHz  ( i2kfx )
CM free space                              A 10 m da terra
CM 18.139 MHz                              Max a 21^ con 13.13 dBi
CM 6 wires, millimeters
CM 1 source
CM 10,100,0
CM 0 loads
CMPP 2, 0, 0, 0, 0
CE
GW 1 10        0,0,10000          0,2815,14876       25
GW 2 10        0,0,10000          0,-2815,14876      25
GW 3 10        0,-2815,14876      0,2815,14876       2
GW 4 10      -3300,0,10000        -3300,2885,14997   25
GW 5 10      -3300,0,10000        -3300,-2885,14997  25
GW 6 10      -3300,-2885,14997    -3300,2885,14997   2
GS 0 0  .001
GE 0
GN 1 0  0 5 .001
FR 0 0 0 0 18.139
EX 0 1 1 0 1.0 0.0
PT -1
RP  0  181   1 1001  -90.00E+00  0.00E+00  1.00E+00  0.00E+00 1.00E+04  0.00E+00
EN
