CM Delta Loop a 2 elementi per i 18  MHz  ( i2kfx )
CM free space                                           7.88 Dbi
CM 18.139 MHz
CM 6 wires, millimeters
CM 1 source
CM 10,100,0
CM 0 loads
CMPP  1, 0, 0, 0, 0
CE
GW 1 10        0,0,0          0,2815,4876       25
GW 2 10        0,0,0          0,-2815,4876      25
GW 3 10        0,-2815,4876   0,2815,4876       2
GW 4 10      -3300,0,0        -3300,2885,4997   25
GW 5 10      -3300,0,0        -3300,-2885,4997  25
GW 6 10      -3300,-2885,4997 -3300,2885,4997   2
GS 0 0  .001
GE 0
FR 0 0 0 0 18.139
EX 0 1 1 0 1.0 0.0
PT -1
RP  0, 1, 1,  1001, 90, 0, 0, 0
RP  0, 1, 1,  1001, 90,180, 0, 0
RP  0, 1, 361, 1001, 90, 0, 1, 1
RP  0, 361, 1, 1001, 0, 0, 1, 1
EN
