CM Delta Loop a 2 elementi per i 18  MHz con 2 el Delta per i 24 sul boom( i2kfx )
CM free space
CM  18.139 MHz                   Sul boom con una 2 el per i 24 MHz
CM  12 wires, millimeters                    8.17 dB
CM  1 source
CM  10,100,0
CMPP  1, 0, 0, 0, 0
CE 0 loads
GW 1 15        0,0,0          0,2815,4876       25
GW 2 15        0,0,0          0,-2815,4876      25
GW 3 15        0,-2815,4876   0,2815,4876       2
GW 4 15      -3300,0,0        -3300,2885,4997   25
GW 5 15      -3300,0,0        -3300,-2885,4997  25
GW 6 15      -3300,-2885,4997 -3300,2885,4997   2
GW 7 15       -450,0,0          -450,2045,3542       25
GW 8 15       -450,0,0          -450,-2045,3542      25
GW 9 15       -450,-2045,3542   -450,2045,3542       2
GW 10 15      -2850,0,0        -2850,2095,3628   25
GW 11 15      -2850,0,0        -2850,-2095,3628  25
GW 12 15      -2850,-2095,3628 -2850,2095,3628   2
GS 0 0  .001
GE 0
FR 0 0 0 0 18.139
EX 0 1 1 0 1.0 0.0
PT -1
RP  0, 1, 1,  1001, 90, 0, 0, 0
RP  0, 1, 1,  1001, 90,180, 0, 0
RP  0, 1, 361, 1001, 90, 0, 1, 1
RP  0, 361, 1, 1001, 0, 0, 1, 1
EN
