CM 2 elementi Delta Loop per i 28 MHz
CM  15 m sopra terra ideale              G = 8.43 Non ottima !!
CM Guadagno massimo a 171 gradi di elevazione  ...al contrario !!
CMPP 2, 0, 0, 0, 0
CE
GW  1  30     0  0       49         0   -5.5    50.665     .03125
GW  2  30     0  0       49         0    5.5    50.665     .03125
GW  3  30     0 -5.5    59.665     0    5.5    50.665     .00337
GW  4  30  -6.5  0       49        -6.5 -5.9167 50.44      .03125
GW  5  30  -6.5  0       49        -6.5  5.9167 50.44      .03125
GW  6  30  -6.5 -5.9167 50.44     -6.5  5.9167 50.44      .00337
GS  0  0  0.3048
GE  0
GN  1
FR  0   0    0    0  28.500    0.050000  0.00E+00  0.00E+00 0.00E+00  0.00E+00
EX  0   1    1    0  1.00E+00  0.00E+00  0.00E+00  0.00E+00 0.00E+00  0.00E+00
PT -1
RP  0  181   1 1001  -90.00E+00  0.00E+00  1.00E+00  0.00E+00 1.00E+04  0.00E+00
EN
