CM Delta Loop 4 elementi derivata dalla yagi  100% F/B su tutta la banda
CM Free Space
CM  14.170 MHz
CM
CM 1 source
CM
CMPP  1, 1, 0, 0, 0
CE 0 loads
GW 1  24  0.0     0.0         0.0         0.0   -3543.5   6137.5   50.0000
GW 2  24  0.0     0.0         0.0         0.0    3543.5   6137.5   50.0000
GW 3  24  0.0    -3543.5   6137.5         0.0    3543.5   6137.5   5.0
GW 4  24  1138.0   0.0      0.0000      1138.0  -3337.5  5781.0  50.0000
GW 5  24  1138.0   0.0      0.0000      1138.0   3337.5  5781.0  50.0000
GW 6  24  1138.0   -3337.5  5781.0      1138.0   3337.5  5781.0   5.0
GW 7  24  2787.0  0.0       0.0000         2787.0   -3249.5 5628.0  50.0000
GW 8  24  2787.0  0.0       0.0000         2787.0    3249.5 5628.0  50.0000
GW 9  24  2787.0  -3249.5   5628.0         2787.0    3249.5 5628.0  5.0
GW 10 24  7772.0  0.0      0.0000         7772.0   -2936.0  5085.0  50.0000
GW 11 24  7772.0  0.0      0.0000         7772.0    2936.0  5085.0  50.0000
GW 12 24  7772.0 -2936.0   5085.0         7772.0    2936.0  5085.0  5.0
GS 0  0  .001
GE  0,
FR  0,0,0,0, 14.170,
EX  0, 4, 1,0,1., 0.,
EX  0, 5, 1,-0,1., 0.,
PT -1
RP  0, 1, 1,  1001, 90, 0, 0, 0
RP  0, 1, 1,  1001, 90,180, 0, 0
RP  0, 1, 361, 1001, 90, 0, 1, 1
RP  0, 361, 1, 1001, 0, 0, 1, 1
EN
