CM  I5TDJ MARK III 26 el  432 Mhz Modified by PA3AEF
CM (All elements are 6 mm longer)
CM Freespace correction = -1.7 mm on Dipoles
CM for 15x15 mm metal boom.
CM Feedpoint at puls 19             modified by I2KFX  17/10/1997
CMPP  1, 0, 0, 0, 0
CM Wire  Seg    X1      Y1      Z1      X2      Y2      Z2      Rad
CE -----------------------------------------------------------------
GW,  1,  12,    -.166,  -.16865, 0,    -.166 ,   .16865, 0,    .0015
GW,  2,  13,    0,      -.1625,  0,      0,      .1625,  0,     .003
GW,  3,  12,    .053,   -.15915, 0,      .053,   .15915, 0,    .0015
GW,  4,  12,    .1775,  -.15665, 0,      .1775,  .15665, 0,    .0015
GW,  5,  12,    .327,   -.15465, 0,      .327,   .15465, 0,    .0015
GW,  6,  12,    .500,   -.15265, 0,      .500,   .15265, 0,    .0015
GW,  7,  12,    .6945,  -.15065, 0,      .6945,  .15065, 0,    .0015
GW,  8,  12,    .903,   -.14865, 0,      .903,   .14865, 0,    .0015
GW,  9,  12,   1.121,   -.14765, 0,     1.121,   .14765, 0,    .0015
GW, 10,  12,   1.350,   -.14665, 0,     1.350,   .14665, 0,    .0015
GW, 11,  12,   1.590,   -.14590, 0,     1.590,   .14590, 0,    .0015
GW, 12,  12,   1.839,   -.14515, 0,     1.839,   .14515, 0,    .0015
GW, 13,  12,   2.100,   -.14445, 0,     2.100,   .14445, 0,    .0015
GW, 14,  12,   2.367,   -.14385, 0,     2.367,   .14385, 0,    .0015
GW, 15,  12,   2.637,   -.14325, 0,     2.637,   .14325, 0,    .0015
GW, 16,  12,   2.912,   -.14265, 0,     2.912,   .14265, 0,    .0015
GW, 17,  12,   3.189,   -.14225, 0,     3.189,   .14225, 0,    .0015
GW, 18,  12,   3.467,   -.14175, 0,     3.467,   .14175, 0,    .0015
GW, 19,  12,   3.744,   -.14135, 0,     3.744,   .14135, 0,    .0015
GW, 20,  12,   4.022,   -.14095, 0,     4.022,   .14095, 0,    .0015
GW, 21,  12,   4.300,   -.14055, 0,     4.300,   .14055, 0,    .0015
GW, 22,  12,   4.577,   -.14015, 0,     4.577,   .14015, 0,    .0015
GW, 23,  12,   4.855,   -.13985, 0,     4.855,   .13985, 0,    .0015
GW, 24,  12,   5.132,   -.13950, 0,     5.132,   .13950, 0,    .0015
GW, 25,  12,   5.410,   -.13915, 0,     5.410,   .13915, 0,    .0015
GW, 26,  12,   5.688,   -.13890, 0,     5.688,   .13890, 0,    .0015
GE  0,
FR  0,0,0,0, 432,
EX  0, 2, 7,0,1., 0.,
PT -1
RP  0, 1, 1,  1001, 90, 0, 0, 0
RP  0, 1, 1,  1001, 90,180, 0, 0
RP  0, 1, 361, 1001, 90, 0, 1, 1
RP  0, 361, 1, 1001, 0, 0, 1, 1
EN
