CM NEC Input File for monopole verticale per i 18.1 MHz
CM su ground
CE
GW  1  8   0.00000   0.00000   0.00000   0.00000   0.00000  17.00000  0.00100
GE  1
GN  1  0    0    0  0.00E+00  0.00E+00  0.00E+00  0.00E+00  0.00E+00 0.00E+00
FR  0  1    0    0  1.81E+01  0.00E+00  0.00E+00  0.00E+00  0.00E+00 0.00E+00
EX  0  1    1    0  1.00E+00  0.00E+00  0.00E+00  0.00E+00  0.00E+00 0.00E+00
RP  0  181  2 1001  0.00E+00  0.00E+00  1.00E+00  1.80E+02  0.00E+00 0.00E+00
EN
