CM NEC Input File
CE
GW  1    8   0.00000   0.00000   0.00000   0.00000   0.00000   5.00000   0.00100
GE  1
GN  1    0    0    0  0.00E+00  0.00E+00  0.00E+00  0.00E+00  0.00E+00  0.00E+00
FR  0    1    0    0  1.50E+01  0.00E+00  0.00E+00  0.00E+00  0.00E+00  0.00E+00
EX  0    1    1    0  1.00E+00  0.00E+00  0.00E+00  0.00E+00  0.00E+00  0.00E+00
RP  0  181    2 1001  0.00E+00  0.00E+00  1.00E+00  1.80E+02  0.00E+00  0.00E+00
EN
