CE Groundplane  antenna for 14.2 MHz 
GW 1 10  0 0 2.      0     0        7.20   0.015
GW 2 10  0 0 2.     5.20   0        2.     0.002
GW 3 10  0 0 2.    -5.20   0        2.     0.002
GW 4 10  0 0 2.     0.     5.20     2.0    0.002
GW 5 10  0 0 2.     0.    -5.20     2.0    0.002
GE 
FR 0   0   0   0      14.2
EX 0   1   1   0     100.0   0.0
GN 0   0   0   0      13.0   5.0
GD 0   0   0   0      13.0   5.0   10. 19.
RP 3 181   1   1100  -90.    0.    1.   0.
EN
