CE Groundplane  antenna for 14.2 MHz 
GW 1 10  0 0 21.      0       0    26.20  0.015
GW 2 10  0 0 21.   5.20     0    21.      0.002
GW 3 10  0 0 21.  -5.20     0    21.      0.002
GW 4 10  0 0 21.      0   -5.20  21.      0.002
GW 5 10  0 0 21.      0    5.20  21.      0.002
GE 
FR 0   0   0   0   14.2
EX 0   1   1   0   100.0   0.0
GN 0   0   0   0    13.0   5.0
RP 0  91  1   1100   0.    0.    1.   0.
EN
