CM NEC Input File 2 element W7GQ 15m QUAD
CM ARRL Antenna Handbook 12-2,Freq stepped .05, 3 times, starting at 18.068
CM Scaled to 17 meters by GS=1.176, RP horz pat 0 to 180 deg, 0 is forward
CM vertical pattern fixed at 69 deg from top or 21 up from horizontal
CE
GW  1  20  1.51400  1.79100  10.00000   1.51400  -1.79100  10.00000  0.00200
GW  2  20  1.51400 -1.79100  10.00000   1.51400  -1.79100  13.58200  0.00200
GW  3  20  1.51400 -1.79100  13.58200   1.51400   1.79100  13.58200  0.00200
GW  4  20  1.51400  1.79100  13.58200   1.51400   1.79100  10.00000  0.00200
GW  5  20 -1.51400  1.86000  10.00000  -1.51400  -1.86000  10.00000  0.00200
GW  6  20 -1.51400 -1.86000  10.00000  -1.51400  -1.86000  13.72000  0.00200
GW  7  20 -1.51400 -1.86000  13.72000  -1.51400   1.86000  13.72000  0.00200
GW  8  20 -1.51400  1.86000  13.72000  -1.51400   1.86000  10.00000  0.00200
GS  0   0  1.17600
GE  0
GN  1   0   0    0  0.00E+00  0.00E+00  0.00E+00  0.00E+00  0.00E+00 0.00E+00
FR  0   3   0    0  18.0680   0.05000   0.00E+00  0.00E+00  0.00E+00 0.00E+00
EX  0   1  10    0  1.00E+00  0.00E+00  0.00E+00  0.00E+00  0.00E+00 0.00E+00
PT -1
RP  0   1  37 1001  6.90E+01  0.00E+00  0.00E+00  5.00E+00  1.00E+04 0.00E+00
EN
