CM NEC Input File for Skywire a 12 m di altezza   3.5 MHz .. 29MHz
CMPP 2, 0, 0, 0, 0
CE
GW  1 21   0.00000   -10.35   .0000  0.000  10.35  .00000   0.01000
GW  2 21   0.00000   -10.35   .0000  20.27 -10.35  .00000   0.01000
GW  3 21   0.00000    10.35   .0000  20.70  10.35  .00000   0.01000
GW  4 21   20.7000   -10.35   .0000  20.70  10.35  .00000   0.01000
GM  0    0 .000  .000   .000      .000   .000  12.0     .000
GE  1
GN  1  0    0    0  0.00E+00  0.00E+00  0.00E+00  0.00E+00  0.00E+00  0.00E+00
FR  0  1    0    0  3.5E+0   0.00E+00  0.00E+00  0.00E+00  0.00E+00  0.00E+00
EX  0  1    10    0  1.00E+00  0.00E+00  0.00E+00  0.00E+00  0.00E+00  0.00E+00
RP  0  181   1 1001  -90.00E+00  0.00E+00  1.00E+00  0.00E+00 1.00E+04  0.00E+00
EN
