CM      TEST SPIRAL for Demo
CE
GW 0,  3,  0.5000,  0.0000,  0.0000,  0.5000,  0.8660,  0.0000,  0.0100
GW 0,  3,  0.5000,  0.8660,  0.0000, -0.7500,  1.2990,  0.0000,  0.0100
GW 0,  3, -0.7500,  1.2990,  0.0000, -2.0000,  0.0000,  0.0000,  0.0100
GW 0,  3, -2.0000,  0.0000,  0.0000, -1.2500, -2.1651,  0.0000,  0.0100
GW 0,  3,  0.0000, -0.5000,  0.0000,  0.8660, -0.5000,  0.0000,  0.0100
GW 0,  3,  0.8660, -0.5000,  0.0000,  1.2990,  0.7500,  0.0000,  0.0100
GW 0,  3,  1.2990,  0.7500,  0.0000,  0.0000,  2.0000,  0.0000,  0.0100
GW 0,  3,  0.0000,  2.0000,  0.0000, -2.1651,  1.2500,  0.0000,  0.0100
GW 0,  3, -0.5000, -0.0000,  0.0000, -0.5000, -0.8660,  0.0000,  0.0100
GW 0,  3, -0.5000, -0.8660,  0.0000,  0.7500, -1.2990,  0.0000,  0.0100
GW 0,  3,  0.7500, -1.2990,  0.0000,  2.0000,  0.0000,  0.0000,  0.0100
GW 0,  3,  2.0000,  0.0000,  0.0000,  1.2500,  2.1651,  0.0000,  0.0100
GW 0,  3, -0.0000,  0.5000,  0.0000, -0.8660,  0.5000,  0.0000,  0.0100
GW 0,  3, -0.8660,  0.5000,  0.0000, -1.2990, -0.7500,  0.0000,  0.0100
GW 0,  3, -1.2990, -0.7500,  0.0000,  0.0000, -2.0000,  0.0000,  0.0100
GW 0,  3,  0.0000, -2.0000,  0.0000,  2.1651, -1.2500,  0.0000,  0.0100
GW 2,  3, -0.5000, -0.0000,  0.0000,  0.0000, -0.5000,  0.0000,  0.0100
GW 3,  3,  0.5000,  0.0000,  0.0000, -0.0000,  0.5000,  0.0000,  0.0100
GE 0
GN 1
EX2,0,1,0,1
EX3,0,1,0,1
FR0,1,0,0,100.
RP0,20,2,1001,0.,0.,5.,90.
EN
