CM Triangolo per i 40m  ( i2kfx )
CM Dal libro di w3fqj               a 15m di altezza
CM
CMPP  2, 0, 0, 0, 0
CE
GW 1 21  0,    -7.09     15,       0,  +7.09,        15,        0.004
GW 2 21  0,    -7.09     15,       0,      0,     27.28,        0.004
GW 3 21  0,     0,    27.28,      0,  +7.09,         15,        0.004
GE 0
GN 1
FR 0 0 0 0 7.05
EX 0 1 11 0 1.0 0.0
PT -1
RP  0  181   1 1001  -90.00E+00  0.00E+00  1.00E+00  0.00E+00 1.00E+04  0.00E+00
EN
