CM NEC Input File for Vee Beam for 28 Mhz  a 10 m di altezza
CM from Dipole and Long-wire antennas by W3FQJ p.95
CMPP 2, 0, 0, 0, 0
CE
GW  1 10   0.00000   0.00000  15.00000  96.39000  27.64000  13.70000   0.01000
GW  2 10   0.00000   0.00000  15.00000  96.39000 -27.64000  13.70000   0.01000
GE  1
GN  1  0    0    0  0.00E+00  0.00E+00  0.00E+00  0.00E+00  0.00E+00  0.00E+00
FR  0  1    0    0  2.85E+01  0.00E+00  0.00E+00  0.00E+00  0.00E+00  0.00E+00
EX  0  1    1    0  1.00E+00  0.00E+00  0.00E+00  0.00E+00  0.00E+00  0.00E+00
EX  0  2    1    0 -1.00E+00  0.00E+00  0.00E+00  0.00E+00  0.00E+00  0.00E+00
RP  0  181   1 1001  -90.00E+00  0.00E+00  1.00E+00  0.00E+00 1.00E+04  0.00E+00
EN
