CM NEC Input File of a 16 element Yagi per i 220 MHz
CM  Eccitazione sul filo numero 16 sull' ottavo  segmento
CM  !!! Notare la differenza con 17 segmenti rispetto ai 7 !!!
CE
GW 15  17   0.00000  -0.34000   0.00000   0.00000   0.34000   0.00000  0.00250
GW 16  17   0.27300  -0.31750   0.00000   0.27300   0.31750   0.00000  0.00250
GW  1  17   0.69300  -0.30500   0.00000   0.69300   0.30500   0.00000  0.00250
GW  2  17   1.11300  -0.30500   0.00000   1.11300   0.30500   0.00000  0.00250
GW  3  17   1.53300  -0.30500   0.00000   1.53300   0.30500   0.00000  0.00250
GW  4  17   1.95300  -0.30500   0.00000   1.95300   0.30500   0.00000  0.00250
GW  5  17   2.37300  -0.30500   0.00000   2.37300   0.30500   0.00000  0.00250
GW  6  17   2.79300  -0.30500   0.00000   2.79300   0.30500   0.00000  0.00250
GW  7  17   3.21300  -0.30500   0.00000   3.21300   0.30500   0.00000  0.00250
GW  8  17   3.63300  -0.30500   0.00000   3.63300   0.30500   0.00000  0.00250
GW  9  17   4.05300  -0.30500   0.00000   4.05300   0.30500   0.00000  0.00250
GW 10  17   4.47300  -0.30500   0.00000   4.47300   0.30500   0.00000  0.00250
GW 11  17   4.89300  -0.30500   0.00000   4.89300   0.30500   0.00000  0.00250
GW 12  17   5.31300  -0.30500   0.00000   5.31300   0.30500   0.00000  0.00250
GW 13  17   5.73300  -0.30500   0.00000   5.73300   0.30500   0.00000  0.00250
GE  0
FR  0  1    0    0  2.20E+02  0.00E+00  0.00E+00  0.00E+00  0.00E+00 0.00E+00
EX  0 16    8    0  1.00E+00  0.00E+00  0.00E+00  0.00E+00  0.00E+00 0.00E+00
PT -1
RP  0, 1, 1,  1001, 90, 0, 0, 0
RP  0, 1, 1,  1001, 180,0, 0, 0
RP  0, 1, 361, 1001, 90, 0, 1, 1
RP  0, 361, 1, 1001, 0, 0, 1, 1
EN
