CM 100% F/B su tutta la banda
CM Free Space
CM  14.170 MHz
CM  4 wires, millimeters
CM 1 source
CM 35 1 0
CMPP  1, 1, 0, 0, 0
CE 0 loads
GW 1 24  -3886.2000 -5314.8696    0.0000  -3886.2000 5314.8696    0.0000   50.0000
GW 2 25  -2748.6187 -5002.6001    0.0000  -2748.6187 5002.6001    0.0000   50.0000
GW 3 24  -1098.6688 -4873.6309    0.0000  -1098.6688 4873.6309    0.0000   50.0000
GW 4 24   3886.2000 -4404.0010    0.0000   3886.2000 4404.0010    0.0000   50.0000
GS 0  0  .001
GE  0,
FR  0,0,0,0, 14.170,
EX  0, 2, 13,0,1., 0.,
PT -1
RP  0, 1, 1,  1001, 90, 0, 0, 0
RP  0, 1, 1,  1001, 90,180, 0, 0
RP  0, 1, 361, 1001, 90, 0, 1, 1
RP  0, 361, 1, 1001, 0, 0, 1, 1
EN
