CE  4x6 elements  optimised
GW  1    5      .000  -494.949      .000      .000   494.949      .000    5.000
GW  2    5      .000  -463.206   669.467      .000   463.206   669.467    5.000
GW  3    5      .000  -455.733  1406.145      .000   455.733  1406.145    5.000
GW  4    5      .000  -450.898  2024.465      .000   450.898  2024.465    5.000
GW  5    5      .000  -437.193  2952.863      .000   437.193  2952.863    5.000
GW  6    5      .000  -456.451  3649.681      .000   456.451  3649.681    5.000
GM  0    0      .000      .000      .000  1695.745  2040.843      .000     .000
GS  0    0      .001      .000      .000      .000      .000      .000     .000
GX100  110      .000      .000      .000      .000      .000      .000     .000
GE  0    0      .000      .000      .000      .000      .000      .000     .000
FR  0    1    0   0  .1441E+03     .0000     .0000     .0000     .0000    .0000
EK  0    0    0   0  .0000E+00     .0000     .0000     .0000     .0000    .0000
LD  5    1    0   0  .2701E+08     .0000     .0000     .0000     .0000    .0000
LD  5    2    0   0  .2701E+08     .0000     .0000     .0000     .0000    .0000
LD  5    3    0   0  .2701E+08     .0000     .0000     .0000     .0000    .0000
LD  5    4    0   0  .2701E+08     .0000     .0000     .0000     .0000    .0000
LD  5    5    0   0  .2701E+08     .0000     .0000     .0000     .0000    .0000
LD  5    6    0   0  .2701E+08     .0000     .0000     .0000     .0000    .0000
LD  5  101    0   0  .2701E+08     .0000     .0000     .0000     .0000    .0000
LD  5  102    0   0  .2701E+08     .0000     .0000     .0000     .0000    .0000
LD  5  103    0   0  .2701E+08     .0000     .0000     .0000     .0000    .0000
LD  5  104    0   0  .2701E+08     .0000     .0000     .0000     .0000    .0000
LD  5  105    0   0  .2701E+08     .0000     .0000     .0000     .0000    .0000
LD  5  106    0   0  .2701E+08     .0000     .0000     .0000     .0000    .0000
LD  5  201    0   0  .2701E+08     .0000     .0000     .0000     .0000    .0000
LD  5  202    0   0  .2701E+08     .0000     .0000     .0000     .0000    .0000
LD  5  203    0   0  .2701E+08     .0000     .0000     .0000     .0000    .0000
LD  5  204    0   0  .2701E+08     .0000     .0000     .0000     .0000    .0000
LD  5  205    0   0  .2701E+08     .0000     .0000     .0000     .0000    .0000
LD  5  206    0   0  .2701E+08     .0000     .0000     .0000     .0000    .0000
LD  5  301    0   0  .2701E+08     .0000     .0000     .0000     .0000    .0000
LD  5  302    0   0  .2701E+08     .0000     .0000     .0000     .0000    .0000
LD  5  303    0   0  .2701E+08     .0000     .0000     .0000     .0000    .0000
LD  5  304    0   0  .2701E+08     .0000     .0000     .0000     .0000    .0000
LD  5  305    0   0  .2701E+08     .0000     .0000     .0000     .0000    .0000
LD  5  306    0   0  .2701E+08     .0000     .0000     .0000     .0000    .0000
KH  0    0    0   0  .1500E+01     .0000     .0000     .0000     .0000    .0000
EX  0    2    3   0  .1000E+01     .0000     .0000     .0000     .0000    .0000
EX  0  102    3   0 -.1000E+01     .0000     .0000     .0000     .0000    .0000
EX  0  202    3   0  .1000E+01     .0000     .0000     .0000     .0000    .0000
EX  0  302    3   0 -.1000E+01     .0000     .0000     .0000     .0000    .0000
RP  0   12   60   0  .9000E+02     .0000     .0004     .0003     .0000    .0000
EN
