CM 5 element Yagi da "optimized Six-metre Yagi"  by K6STI
CM
CM        Max gain and equal back lobes at 49.35 MHz
CM
CM
CM
CM
CMPP  1, 1, 0, 0, 0
CE
GW 1 17        0,   -1458,  0        0, 1458, 0       13
GW 2 17      1133,  -1387,  0     1133, 1387, 0       13
GW 3 17      2740,  -1350,  0     2740, 1350, 0       13
GW 4 17      4949,  -1327,  0     4949, 1327, 0       13
GW 5 17      6874,  -1327,  0     6874, 1327, 0       13
GS 0 0  .001
GE 0
FR 0 0 0 0 49.35
EX 0 2 9 0 1.0 0.0
PT -1
RP  0, 1, 1,  1001, 90, 0, 0, 0
RP  0, 1, 1,  1001, 90,180, 0, 0
RP  0, 1, 361, 1001, 90, 0, 1, 1
RP  0, 361, 1, 1001, 0, 0, 1, 1
EN
