CM 5 element Yagi da ARRL Handbook  p.226 Max corretto per 50.157  ( i2kfx )
CM free space
CM 50.157 MHz
CM 6 wires, millimeters
CM 1 source
CM 5,100,0
CM 0 loads
CMPP  1, 1, 0, 0, 0
CE
GW 1 17        0,   -1399,  0        0, 1399, 0       50
GW 2 17      -878,  -1506,  0     -878, 1506, 0       20
GW 3 17       878,  -1362,  0      878, 1362, 0       20
GW 4 17       1756, -1338,  0     1756, 1338, 0       20
GW 5 17       2634, -1311,  0     2634, 1311, 0       20
GS 0 0  .001
GE 0
FR 0 0 0 0 50.157
EX 0 1 9 0 1.0 0.0
PT -1
RP  0, 1, 1,  1001, 90, 0, 0, 0
RP  0, 1, 1,  1001, 90,180, 0, 0
RP  0, 1, 361, 1001, 90, 0, 1, 1
RP  0, 361, 1, 1001, 0, 0, 1, 1
EN
