CM 5 element Yagi da ARRL Handbook  p.226 Max corretto per 50.157  ( i2kfx )
CM free space
CM 50.157 MHz
CM 6 wires, millimeters
CM 1 source
CM 5,100,0
CM 0 loads
CMPP  2, 0, 0, 0, 0
CE
GW 1 17        0,   -1399,  18000        0, 1399, 18000       50
GW 2 17      -878,  -1506,  18000     -878, 1506, 18000       20
GW 3 17       878,  -1362,  18000      878, 1362, 18000       20
GW 4 17       1756, -1338,  18000     1756, 1338, 18000       20
GW 5 17       2634, -1311,  18000     2634, 1311, 18000       20
GS 0 0  .001
GE 0
GN 1
FR 0 0 0 0 50.157
EX 0 1 9 0 1.0 0.0
PT -1
RP  0  181   1 1001  -90.00E+00  0.00E+00  1.00E+00  0.00E+00 1.00E+04  0.00E+00
EN
