CM                         6 elements Irradia verso X -->
CMPP 1, 0, 0, 0, 0
CE
GW  1    5       .000    -494.949   .000        .000  494.949      .000   5.000
GW  2    5    669.467    -463.206   .000     669.467  463.206      .000   5.000
GW  3    5   1406.145    -455.733   .000    1406.145  455.733      .000   5.000
GW  4    5   2024.465    -450.898   .000    2024.465  450.898      .000   5.000
GW  5    5   2952.863    -437.193   .000    2952.863  437.193      .000   5.000
GW  6    5   3649.681    -456.451   .000    3649.681  456.451      .000   5.000
GM  0    0      .000      .000      .000  1695.745  2040.843      .000     .000
GS  0    0      .001      .000      .000      .000      .000      .000     .000
GE  0    0      .000      .000      .000      .000      .000      .000     .000
FR  0    1    0   0  .1441E+03     .0000     .0000     .0000     .0000    .0000
EK  0    0    0   0  .0000E+00     .0000     .0000     .0000     .0000    .0000
LD  5    1    0   0  .2701E+08     .0000     .0000     .0000     .0000    .0000
LD  5    2    0   0  .2701E+08     .0000     .0000     .0000     .0000    .0000
LD  5    3    0   0  .2701E+08     .0000     .0000     .0000     .0000    .0000
LD  5    4    0   0  .2701E+08     .0000     .0000     .0000     .0000    .0000
LD  5    5    0   0  .2701E+08     .0000     .0000     .0000     .0000    .0000
LD  5    6    0   0  .2701E+08     .0000     .0000     .0000     .0000    .0000
KH  0    0    0   0  .1500E+01     .0000     .0000     .0000     .0000    .0000
EX  0    2    3   0  .1000E+01     .0000     .0000     .0000     .0000    .0000
PT -1
RP  0, 1, 1,  1001, 90, 0, 0, 0
RP  0, 1, 1,  1001, 90,180, 0, 0
RP  0, 1, 361, 1001, 90, 0, 1, 1
RP  0, 361, 1, 1001, 0, 0, 1, 1
EN
