CM 9ltonnaopt                       otimizzata da YO
CM  143.900  144.025  144.300   MHz
CM  9 elements, centimeters
CMPP  1, 0, 0, 0, 0
CE
GW 1 17  0.000   51.3014     0      0.000  -51.3014     0     .40
GW 2 17  32.863  46.3962     0     32.863  -46.3962     0    1.40
GW 3 17  52.543  47.0971     0     52.543  -47.0971     0     .40
GW 4 17  85.481  47.6323     0     85.481  -47.6323     0     .40
GW 5 17 139.541  46.3884     0    139.541  -46.3884     0     .40
GW 6 17 187.141  45.2911     0    187.141  -45.2911     0     .40
GW 7 17 242.109  44.0180     0    242.109  -44.0180     0     .40
GW 8 17 293.674  44.9537     0    293.674  -44.9537     0     .40
GW 9 17 344.665  45.2541     0    344.665  -45.2541     0     .40
GS 0 0  .01
GE 0
FR 0 0 0 0 144.025
EX 0 2 9 0 1.0 0.0
PT -1
RP  0, 1, 1,  1001, 90, 0, 0, 0
RP  0, 1, 1,  1001, 90,180, 0, 0
RP  0, 1, 361, 1001, 90, 0, 1, 1
RP  0, 361, 1, 1001, 0, 0, 1, 1
EN
