CM Input file (NEC-2) for an interlaced combination of a 2-element yagi (40 m)
CM and a 3-element (20 m). This is a model to give max F/B on the same freq
CM (7 MHz) as measurement done 970524. To achieve this the lenght of the 40 m
CM elements are changed frm 7.355 to 7.22 and 7.105 to 7.11 m.
CM The 20 m elements are the same as that optimized before in NEC-2.
CMPP  2, 1, 0, 0, 0
CE                              For 40 m
GW  1   16        .1    -7.220       17.        .1    -4.609       17.
GC  0    0        1.      .006      .011
GW  2    3        .1    -4.609       17.        .1    -4.231       17.     .011
GW  3   18        .1    -4.231       17.        .1    -1.400       17.
GC  0    0        1.     .011       .018
GW  4   17        .1    -1.400       17.        .1     1.400       17.     .018
GW  5   18        .1     1.400       17.        .1     4.231       17.
GC  0    0        1.     .018       .008
GW  6    3        .1     4.231       17.        .1     4.609       17.     .011
GW  7   16        .1     4.609       17.        .1     7.220       17.
GC  0    0        1.      .011      .006
GW 20    5       0.6    -5.52        17.       0.6    -0.285       17.
GC  0    0        1.      .006      .014
GW 21    5       0.6    -0.285       17.       0.6     0.285       17.     .014
GW 22    5       0.6     0.285       17.       0.6      5.52       17.
GC  0    0        1.      .014      .006
GW 30    5     3.315     -5.22       17.     3.315     -1.44       17.
GC  0    0        1.      .006      .012
GW 31    5     3.315     -1.44       17.     3.315      1.44       17.     .012
GW 32    5     3.315      1.44       17.     3.315      5.22       17.
GC  0    0        1.      .012      .006
GW 40   16       6.1    -7.110       17.       6.1    -4.609       17.
GC  0    0        1.      .006      .011
GW 43    3       6.1    -4.609       17.       6.1    -4.231       17.     .011
GW 44   18       6.1    -4.231       17.       6.1    -1.400       17.
GC  0    0        1.     .011       .018
GW 47   17       6.1    -1.400       17.       6.1     1.400       17.     .018
GW 48   18       6.1     1.400       17.       6.1     4.231       17.
GC  0    0        1.     .018       .008
GW 51    3       6.1     4.231       17.       6.1     4.609       17.     .011
GW 52   16       6.1     4.609       17.       6.1     7.110       17.
GC  0    0        1.      .011      .006
GW 60    5       7.2    -4.97        17.       7.2    -0.285       17.
GC  0    0        1.      .006      .014
GW 61    5       7.2    -0.285       17.       7.2     0.285       17.     .014
GW 62    5       7.2     0.285       17.       7.2     4.97        17.
GC  0    0        1.      .014      .006
GE  1
EK  0
GN  0    0    0    0       13.     1.000E-03
LD  1    2    2    0 1.550E+05 8.700E-06 0.95E-11
LD  1    6    2    0 1.550E+05 8.700E-06 0.95E-11
LD  1   43    2    0 1.550E+05 8.700E-06 0.95E-11
LD  1   51    2    0 1.550E+05 8.700E-06 0.95E-11
LD  5    1    0    0   3.7E+07
LD  5    3    0    0   3.7E+07
LD  5    4    0    0   3.7E+07
LD  5    5    0    0   3.7E+07
LD  5    7    0    0   3.7E+07
LD  5   20    0    0   3.7E+07
LD  5   21    0    0   3.7E+07
LD  5   22    0    0   3.7E+07
LD  5   30    0    0   3.7E+07
LD  5   31    0    0   3.7E+07
LD  5   32    0    0   3.7E+07
LD  5   40    0    0   3.7E+07
LD  5   44    0    0   3.7E+07
LD  5   48    0    0   3.7E+07
LD  5   52    0    0   3.7E+07
LD  5   60    0    0   3.7E+07
LD  5   61    0    0   3.7E+07
LD  5   62    0    0   3.7E+07
FR  0    5    0    0     6.975     0.025
EX  0   47    9    0        1.
PT -1
RP  0  181   1 1001  -90.00E+00  0.00E+00  1.00E+00  0.00E+00 1.00E+04  0.00E+00
XQ  0
EN

Lines to change for to calculate 20 m.

FR  0    7    0    0     13.9       0.1
EX  0   31    3    0        1.
RP  0    4    2 0000       70.        0.        5.       90.
